<additional>
  <!-- Add additional elements here -->
</additional>
